Circuit: * C:\Users\austi\Texas Tech University\Project Lab 1 - General\Ventilator\Final Ventilator Files\LTSpice Schematic\VoltageDivider.asc

Direct Newton iteration for .op point succeeded.

Date: Tue May 12 01:42:11 2020
Total elapsed time: 0.035 seconds.

tnom = 27
temp = 27
method = modified trap
totiter = 2089
traniter = 2086
tranpoints = 1044
accept = 1044
rejected = 0
matrix size = 4
fillins = 0
solver = Normal
Matrix Compiler1:       5 opcodes  0.0/[0.0]/0.0
Matrix Compiler2: 248 bytes object code size  0.0/0.0/[0.0]

